api/pglib_opf_case1803_snem__api.m
%%%%%%%%%%%%%%%%%%%%%%%%%%%%%%%%%%%%%%%%%%%%%%%%%%%%%%%%%%%%%%%%%%%%%%%%%%%
%%%%                                                                  %%%%%
%%%%    IEEE PES Power Grid Library - Optimal Power Flow - v23.07     %%%%%
%%%%          (https://github.com/power-grid-lib/pglib-opf)           %%%%%
%%%%             Benchmark Group - Active Power Increase              %%%%%
%%%%                         23 - July - 2023                         %%%%%
%%%%                                                                  %%%%%
%%%%%%%%%%%%%%%%%%%%%%%%%%%%%%%%%%%%%%%%%%%%%%%%%%%%%%%%%%%%%%%%%%%%%%%%%%%
function mpc = pglib_opf_case1803_snem__api
mpc.version = '2';
mpc.baseMVA = 100.0;

%% bus data
%	bus_i	type	Pd	Qd	Gs	Bs	area	Vm	Va	baseKV	zone	Vmax	Vmin
mpc.bus = [
	1	 1	 0.0	 0.0	 0.0	 0.0	 1	    1.00000	    0.00000	 0.55	 1	    1.10000	    0.90000;
	2	 1	 0.0	 0.0	 0.0	 0.0	 1	    1.00000	    0.00000	 0.55	 1	    1.10000	    0.90000;
	3	 3	 36.50	 22.99	 0.0	 0.0	 1	    1.00000	    0.00000	 23.0	 1	    1.10000	    0.90000;
	4	 2	 47.36	 25.54	 0.0	 0.0	 1	    1.00000	    0.00000	 23.0	 1	    1.10000	    0.90000;
	5	 2	 48.75	 25.45	 0.0	 0.0	 1	    1.00000	    0.00000	 23.0	 1	    1.10000	    0.90000;
	6	 2	 48.49	 25.95	 0.0	 0.0	 1	    1.00000	    0.00000	 23.0	 1	    1.10000	    0.90000;
	7	 1	 0.0	 0.0	 0.0	 0.0	 1	    1.00000	    0.00000	 11.0	 1	    1.10000	    0.90000;
	8	 1	 46.02	 6.89	 0.0	 28.2324585212	 1	    1.00000	    0.00000	 22.0	 1	    1.10000	    0.90000;
	10	 1	 0.0	 0.0	 0.0	 0.0	 1	    1.00000	    0.00000	 11.0	 1	    1.10000	    0.90000;
	11	 1	 0.0	 0.0	 0.0	 0.0	 1	    1.00000	    0.00000	 11.0	 1	    1.10000	    0.90000;
	12	 2	 0.0	 0.0	 0.0	 0.0	 1	    1.00000	    0.00000	 330.0	 1	    1.10000	    0.90000;
	13	 2	 0.0	 0.0	 0.0	 0.0	 1	    1.00000	    0.00000	 0.69	 1	    1.10000	    0.90000;
	14	 2	 0.0	 0.0	 0.0	 0.0	 1	    1.00000	    0.00000	 0.69	 1	    1.10000	    0.90000;
	15	 2	 0.0	 0.0	 0.0	 0.0	 1	    1.00000	    0.00000	 0.69	 1	    1.10000	    0.90000;
	16	 1	 0.57	 0.00	 0.0	 -2.25647719306	 1	    1.00000	    0.00000	 0.69	 1	    1.10000	    0.90000;
	17	 1	 -0.24	 0.00	 0.0	 -3.91829091666	 1	    1.00000	    0.00000	 0.69	 1	    1.10000	    0.90000;
	18	 2	 44.15	 24.71	 0.0	 0.0	 1	    1.00000	    0.00000	 23.0	 1	    1.10000	    0.90000;
	19	 2	 43.87	 24.86	 0.0	 0.0	 1	    1.00000	    0.00000	 23.0	 1	    1.10000	    0.90000;
	20	 2	 44.18	 24.84	 0.0	 0.0	 1	    1.00000	    0.00000	 23.0	 1	    1.10000	    0.90000;
	21	 2	 45.32	 25.01	 0.0	 0.0	 1	    1.00000	    0.00000	 23.0	 1	    1.10000	    0.90000;
	22	 1	 -83.06	 0.00	 0.0	 -11.7381837877	 1	    1.00000	    0.00000	 33.0	 1	    1.10000	    0.90000;
	23	 2	 0.06	 0.04	 0.0	 0.0	 1	    1.00000	    0.00000	 16.0	 1	    1.10000	    0.90000;
	24	 2	 0.0	 0.0	 0.0	 0.0	 1	    1.00000	    0.00000	 0.69	 1	    1.10000	    0.90000;
	25	 2	 0.0	 0.0	 0.0	 0.0	 1	    1.00000	    0.00000	 0.69	 1	    1.10000	    0.90000;
	26	 2	 0.00	 -14.68	 0.0	 0.0	 1	    1.00000	    0.00000	 0.69	 1	    1.10000	    0.90000;
	27	 1	 0.0	 0.0	 0.0	 0.0	 1	    1.00000	    0.00000	 132.0	 1	    1.10000	    0.90000;
	28	 2	 0.0	 0.0	 0.0	 0.0	 1	    1.00000	    0.00000	 132.0	 1	    1.10000	    0.90000;
	29	 1	 0.0	 0.0	 0.0	 0.0	 1	    1.00000	    0.00000	 16.0	 1	    1.10000	    0.90000;
	30	 2	 0.11	 0.08	 0.0	 0.0	 1	    1.00000	    0.00000	 16.0	 1	    1.10000	    0.90000;
	31	 2	 0.0	 0.0	 0.0	 0.0	 1	    1.00000	    0.00000	 11.0	 1	    1.10000	    0.90000;
	32	 1	 176.73	 -4.11	 0.0	 0.0	 1	    1.00000	    0.00000	 33.0	 1	    1.10000	    0.90000;
	33	 1	 -3.34	 0.00	 0.0	 13.0353994753	 1	    1.00000	    0.00000	 11.0	 1	    1.10000	    0.90000;
	34	 2	 24.60	 10.36	 0.0	 0.0	 1	    1.00000	    0.00000	 22.0	 1	    1.10000	    0.90000;
	35	 2	 23.36	 10.89	 0.0	 0.0	 1	    1.00000	    0.00000	 22.0	 1	    1.10000	    0.90000;
	36	 2	 24.92	 10.56	 0.0	 0.0	 1	    1.00000	    0.00000	 22.0	 1	    1.10000	    0.90000;
	37	 2	 0.13	 0.09	 0.0	 0.0	 1	    1.00000	    0.00000	 15.4	 1	    1.10000	    0.90000;
	38	 2	 0.12	 0.09	 0.0	 0.0	 1	    1.00000	    0.00000	 15.4	 1	    1.10000	    0.90000;
	39	 2	 0.12	 0.09	 0.0	 0.0	 1	    1.00000	    0.00000	 15.4	 1	    1.10000	    0.90000;
	40	 2	 0.12	 0.09	 0.0	 0.0	 1	    1.00000	    0.00000	 15.4	 1	    1.10000	    0.90000;
	41	 2	 0.12	 0.09	 0.0	 0.0	 1	    1.00000	    0.00000	 15.4	 1	    1.10000	    0.90000;
	42	 2	 0.13	 0.09	 0.0	 0.0	 1	    1.00000	    0.00000	 15.4	 1	    1.10000	    0.90000;
	43	 2	 42.28	 25.97	 0.0	 0.0	 1	    1.00000	    0.00000	 23.0	 1	    1.10000	    0.90000;
	44	 1	 0.0	 0.0	 0.0	 0.0	 1	    1.00000	    0.00000	 23.0	 1	    1.10000	    0.90000;
	45	 1	 0.0	 0.0	 0.0	 0.0	 1	    1.00000	    0.00000	 17.5	 1	    1.10000	    0.90000;
	46	 1	 -6.32	 0.00	 0.0	 0.0624221457001	 1	    1.00000	    0.00000	 22.0	 1	    1.10000	    0.90000;
	47	 1	 1.37	 0.73	 0.0	 0.0	 1	    1.00000	    0.00000	 15.0	 1	    1.10000	    0.90000;
	48	 1	 1.50	 0.73	 0.0	 0.0	 1	    1.00000	    0.00000	 15.0	 1	    1.10000	    0.90000;
	49	 1	 1.30	 0.59	 0.0	 0.0	 1	    1.00000	    0.00000	 15.0	 1	    1.10000	    0.90000;
	50	 1	 1.26	 0.59	 0.0	 0.0	 1	    1.00000	    0.00000	 15.0	 1	    1.10000	    0.90000;
	51	 1	 -3.06	 0.00	 0.0	 0.0	 1	    1.00000	    0.00000	 0.55	 1	    1.10000	    0.90000;
	52	 1	 -20.56	 0.00	 0.0	 -3.9105969881	 1	    1.00000	    0.00000	 22.0	 1	    1.10000	    0.90000;
	53	 1	 -20.36	 0.00	 0.0	 -3.68069020144	 1	    1.00000	    0.00000	 22.0	 1	    1.10000	    0.90000;
	54	 1	 50.07	 4.59	 0.0	 -4.59536475486	 1	    1.00000	    0.00000	 11.0	 1	    1.10000	    0.90000;
	55	 1	 0.0	 0.0	 0.0	 0.0	 1	    1.00000	    0.00000	 0.55	 1	    1.10000	    0.90000;
	56	 2	 9.65	 2.42	 0.0	 0.0	 1	    1.00000	    0.00000	 21.0	 1	    1.10000	    0.90000;
	57	 2	 0.0	 0.0	 0.0	 0.0	 1	    1.00000	    0.00000	 11.5	 1	    1.10000	    0.90000;
	58	 2	 0.0	 0.0	 0.0	 0.0	 1	    1.00000	    0.00000	 11.5	 1	    1.10000	    0.90000;
	59	 1	 0.0	 0.0	 0.0	 0.0	 1	    1.00000	    0.00000	 132.0	 1	    1.10000	    0.90000;
	60	 1	 -14.28	 0.00	 0.0	 -4.09664424893	 1	    1.00000	    0.00000	 12.0	 1	    1.10000	    0.90000;
	61	 2	 0.0	 0.0	 0.0	 401.966151409	 1	    1.00000	    0.00000	 330.0	 1	    1.10000	    0.90000;
	62	 2	 0.0	 0.0	 0.0	 0.0	 1	    1.00000	    0.00000	 11.0	 1	    1.10000	    0.90000;
	63	 2	 0.0	 0.0	 0.0	 0.0	 1	    1.00000	    0.00000	 11.0	 1	    1.10000	    0.90000;
	64	 2	 0.0	 0.0	 0.0	 0.0	 1	    1.00000	    0.00000	 15.75	 1	    1.10000	    0.90000;
	65	 2	 0.0	 0.0	 0.0	 0.0	 1	    1.00000	    0.00000	 15.75	 1	    1.10000	    0.90000;
	66	 2	 0.0	 0.0	 0.0	 0.0	 1	    1.00000	    0.00000	 15.75	 1	    1.10000	    0.90000;
	67	 2	 0.0	 0.0	 0.0	 0.0	 1	    1.00000	    0.00000	 15.75	 1	    1.10000	    0.90000;
	68	 1	 0.0	 0.0	 0.0	 0.0	 1	    1.00000	    0.00000	 12.5	 1	    1.10000	    0.90000;
	69	 2	 0.06	 0.04	 0.0	 0.0	 1	    1.00000	    0.00000	 12.5	 1	    1.10000	    0.90000;
	70	 2	 0.06	 0.05	 0.0	 0.0	 1	    1.00000	    0.00000	 12.5	 1	    1.10000	    0.90000;
	71	 1	 0.0	 0.0	 0.0	 0.0	 1	    1.00000	    0.00000	 12.5	 1	    1.10000	    0.90000;
	72	 1	 0.0	 0.0	 0.0	 0.0	 1	    1.00000	    0.00000	 12.5	 1	    1.10000	    0.90000;
	73	 2	 0.05	 0.04	 0.0	 0.0	 1	    1.00000	    0.00000	 12.5	 1	    1.10000	    0.90000;
	74	 2	 0.05	 0.04	 0.0	 0.0	 1	    1.00000	    0.00000	 12.5	 1	    1.10000	    0.90000;
	75	 2	 0.05	 0.04	 0.0	 0.0	 1	    1.00000	    0.00000	 12.5	 1	    1.10000	    0.90000;
	76	 2	 35.29	 14.95	 0.0	 0.0	 1	    1.00000	    0.00000	 23.0	 1	    1.10000	    0.90000;
	77	 2	 37.50	 14.58	 0.0	 0.0	 1	    1.00000	    0.00000	 23.0	 1	    1.10000	    0.90000;
	78	 1	 24.07	 9.02	 0.0	 -4.99407642437	 1	    1.00000	    0.00000	 66.0	 1	    1.10000	    0.90000;
	79	 2	 0.0	 0.0	 0.0	 0.0	 1	    1.00000	    0.00000	 11.0	 1	    1.10000	    0.90000;
	80	 2	 0.0	 0.0	 0.0	 0.0	 1	    1.00000	    0.00000	 11.0	 1	    1.10000	    0.90000;
	81	 1	 0.0	 0.0	 0.0	 0.0	 1	    1.00000	    0.00000	 11.0	 1	    1.10000	    0.90000;
	82	 1	 0.0	 0.0	 0.0	 0.0	 1	    1.00000	    0.00000	 11.0	 1	    1.10000	    0.90000;
	83	 1	 0.0	 0.0	 0.0	 0.0	 1	    1.00000	    0.00000	 11.5	 1	    1.10000	    0.90000;
	84	 1	 0.0	 0.0	 0.0	 0.0	 1	    1.00000	    0.00000	 11.5	 1	    1.10000	    0.90000;
	85	 1	 0.0	 0.0	 0.0	 0.0	 1	    1.00000	    0.00000	 500.0	 1	    1.10000	    0.90000;
	86	 1	 0.0	 0.0	 0.0	 0.0	 1	    1.00000	    0.00000	 330.0	 1	    1.10000	    0.90000;
	87	 1	 0.0	 0.0	 0.0	 0.0	 1	    1.00000	    0.00000	 500.0	 1	    1.10000	    0.90000;
	88	 1	 0.0	 0.0	 0.0	 412.028655894	 1	    1.00000	    0.00000	 330.0	 1	    1.10000	    0.90000;
	91	 1	 0.0	 0.0	 0.0	 0.0	 1	    1.00000	    0.00000	 330.0	 1	    1.10000	    0.90000;
	92	 1	 0.0	 0.0	 0.0	 0.0	 1	    1.00000	    0.00000	 500.0	 1	    1.10000	    0.90000;
	93	 1	 0.0	 0.0	 0.0	 0.0	 1	    1.00000	    0.00000	 330.0	 1	    1.10000	    0.90000;
	94	 1	 0.0	 0.0	 0.0	 0.0	 1	    1.00000	    0.00000	 500.0	 1	    1.10000	    0.90000;
	95	 1	 0.0	 0.0	 0.0	 0.0	 1	    1.00000	    0.00000	 330.0	 1	    1.10000	    0.90000;
	97	 1	 0.0	 0.0	 0.0	 0.0	 1	    1.00000	    0.00000	 330.0	 1	    1.10000	    0.90000;
	98	 1	 0.0	 0.0	 0.0	 0.0	 1	    1.00000	    0.00000	 330.0	 1	    1.10000	    0.90000;
	99	 1	 0.0	 0.0	 0.0	 0.0	 1	    1.00000	    0.00000	 330.0	 1	    1.10000	    0.90000;
	100	 1	 0.0	 0.0	 0.0	 0.0	 1	    1.00000	    0.00000	 330.0	 1	    1.10000	    0.90000;
	101	 1	 0.0	 0.0	 0.0	 0.0	 1	    1.00000	    0.00000	 330.0	 1	    1.10000	    0.90000;
	102	 1	 0.0	 0.0	 0.0	 -155.267267078	 1	    1.00000	    0.00000	 330.0	 1	    1.10000	    0.90000;
	103	 1	 0.10	 -1.72	 0.0	 0.0	 1	    1.00000	    0.00000	 132.0	 1	    1.10000	    0.90000;
	104	 1	 0.0	 0.0	 0.0	 -62.1507556932	 1	    1.00000	    0.00000	 330.0	 1	    1.10000	    0.90000;
	105	 1	 0.0	 0.0	 0.0	 0.0	 1	    1.00000	    0.00000	 330.0	 1	    1.10000	    0.90000;
	106	 1	 0.0	 0.0	 0.0	 0.0	 1	    1.00000	    0.00000	 330.0	 1	    1.10000	    0.90000;
	107	 1	 0.0	 0.0	 0.0	 0.0	 1	    1.00000	    0.00000	 330.0	 1	    1.10000	    0.90000;
	108	 1	 0.0	 0.0	 0.0	 0.0	 1	    1.00000	    0.00000	 330.0	 1	    1.10000	    0.90000;
	109	 1	 0.0	 0.0	 0.0	 0.0	 1	    1.00000	    0.00000	 330.0	 1	    1.10000	    0.90000;
	110	 1	 0.0	 0.0	 0.0	 0.0	 1	    1.00000	    0.00000	 330.0	 1	    1.10000	    0.90000;
	111	 1	 0.0	 0.0	 0.0	 -100.109446193	 1	    1.00000	    0.00000	 330.0	 1	    1.10000	    0.90000;
	112	 1	 0.0	 0.0	 0.0	 0.0	 1	    1.00000	    0.00000	 330.0	 1	    1.10000	    0.90000;
	113	 1	 0.0	 0.0	 0.0	 0.0	 1	    1.00000	    0.00000	 330.0	 1	    1.10000	    0.90000;
	114	 1	 0.0	 0.0	 0.0	 0.0	 1	    1.00000	    0.00000	 330.0	 1	    1.10000	    0.90000;
	115	 1	 0.0	 0.0	 0.0	 0.0	 1	    1.00000	    0.00000	 330.0	 1	    1.10000	    0.90000;
	116	 1	 0.0	 0.0	 0.0	 0.0	 1	    1.00000	    0.00000	 500.0	 1	    1.10000	    0.90000;
	117	 1	 0.0	 0.0	 0.0	 0.0	 1	    1.00000	    0.00000	 330.0	 1	    1.10000	    0.90000;
	118	 1	 0.0	 0.0	 0.0	 0.0	 1	    1.00000	    0.00000	 330.0	 1	    1.10000	    0.90000;
	119	 1	 0.0	 0.0	 0.0	 0.0	 1	    1.00000	    0.00000	 330.0	 1	    1.10000	    0.90000;
	120	 1	 0.0	 0.0	 0.0	 0.0	 1	    1.00000	    0.00000	 330.0	 1	    1.10000	    0.90000;
	121	 1	 52.14	 -10.42	 0.0	 0.0	 1	    1.00000	    0.00000	 132.0	 1	    1.10000	    0.90000;
	122	 1	 47.07	 -7.42	 0.0	 0.0	 1	    1.00000	    0.00000	 132.0	 1	    1.10000	    0.90000;
	123	 1	 1.03	 0.54	 0.0	 0.0	 1	    1.00000	    0.00000	 132.0	 1	    1.10000	    0.90000;
	124	 1	 46.81	 -6.03	 0.0	 0.0	 1	    1.00000	    0.00000	 132.0	 1	    1.10000	    0.90000;
	126	 1	 0.0	 0.0	 0.0	 0.0	 1	    1.00000	    0.00000	 330.0	 1	    1.10000	    0.90000;
	127	 1	 0.0	 0.0	 0.0	 0.0	 1	    1.00000	    0.00000	 330.0	 1	    1.10000	    0.90000;
	128	 1	 0.0	 0.0	 0.0	 0.0	 1	    1.00000	    0.00000	 330.0	 1	    1.10000	    0.90000;
	129	 1	 0.0	 0.0	 0.0	 0.0	 1	    1.00000	    0.00000	 132.0	 1	    1.10000	    0.90000;
	130	 1	 0.0	 0.0	 0.0	 0.0	 1	    1.00000	    0.00000	 132.0	 1	    1.10000	    0.90000;
	131	 1	 0.0	 0.0	 0.0	 0.0	 1	    1.00000	    0.00000	 330.0	 1	    1.10000	    0.90000;
	132	 1	 19.17	 5.15	 0.0	 0.0	 1	    1.00000	    0.00000	 132.0	 1	    1.10000	    0.90000;
	133	 1	 0.0	 0.0	 0.0	 -246.926355765	 1	    1.00000	    0.00000	 330.0	 1	    1.10000	    0.90000;
	135	 1	 0.0	 0.0	 0.0	 0.0	 1	    1.00000	    0.00000	 330.0	 1	    1.10000	    0.90000;
	138	 1	 0.0	 0.0	 0.0	 0.0	 1	    1.00000	    0.00000	 330.0	 1	    1.10000	    0.90000;
	139	 1	 1299.77	 274.40	 0.0	 221.551048583	 1	    1.00000	    0.00000	 330.0	 1	    1.10000	    0.90000;
	140	 1	 0.0	 0.0	 0.0	 0.0	 1	    1.00000	    0.00000	 330.0	 1	    1.10000	    0.90000;
	141	 1	 0.0	 0.0	 0.0	 0.0	 1	    1.00000	    0.00000	 330.0	 1	    1.10000	    0.90000;
	142	 2	 0.0	 0.0	 0.0	 192.15602316	 1	    1.00000	    0.00000	 330.0	 1	    1.10000	    0.90000;
	143	 1	 0.0	 0.0	 0.0	 0.0	 1	    1.00000	    0.00000	 330.0	 1	    1.10000	    0.90000;
	144	 1	 0.0	 0.0	 0.0	 0.0	 1	    1.00000	    0.00000	 330.0	 1	    1.10000	    0.90000;
	145	 1	 0.0	 0.0	 0.0	 0.0	 1	    1.00000	    0.00000	 330.0	 1	    1.10000	    0.90000;
	146	 1	 0.0	 0.0	 0.0	 0.0	 1	    1.00000	    0.00000	 330.0	 1	    1.10000	    0.90000;
	147	 1	 0.0	 0.0	 0.0	 0.0	 1	    1.00000	    0.00000	 330.0	 1	    1.10000	    0.90000;
	148	 1	 0.0	 0.0	 0.0	 -102.099124142	 1	    1.00000	    0.00000	 330.0	 1	    1.10000	    0.90000;
	149	 1	 0.0	 0.0	 0.0	 0.0	 1	    1.00000	    0.00000	 500.0	 1	    1.10000	    0.90000;
	150	 1	 0.0	 0.0	 0.0	 0.0	 1	    1.00000	    0.00000	 330.0	 1	    1.10000	    0.90000;
	151	 1	 0.0	 0.0	 0.0	 0.0	 1	    1.00000	    0.00000	 330.0	 1	    1.10000	    0.90000;
	152	 1	 0.0	 0.0	 0.0	 80.0795439854	 1	    1.00000	    0.00000	 132.0	 1	    1.10000	    0.90000;
	154	 1	 0.0	 0.0	 0.0	 -130.999934976	 1	    1.00000	    0.00000	 33.0	 1	    1.10000	    0.90000;
	155	 1	 0.0	 0.0	 0.0	 0.0	 1	    1.00000	    0.00000	 33.0	 1	    1.10000	    0.90000;
	156	 1	 0.29	 0.40	 0.0	 -98.8957157964	 1	    1.00000	    0.00000	 132.0	 1	    1.10000	    0.90000;
	157	 1	 0.0	 0.0	 0.0	 24.5882924404	 1	    1.00000	    0.00000	 132.0	 1	    1.10000	    0.90000;
	159	 1	 404.45	 25.10	 0.0	 123.898189047	 1	    1.00000	    0.00000	 132.0	 1	    1.10000	    0.90000;
	160	 1	 0.0	 0.0	 0.0	 -34.6324332986	 1	    1.00000	    0.00000	 220.0	 1	    1.10000	    0.90000;
	161	 1	 17.99	 -4.02	 0.0	 38.4342529013	 1	    1.00000	    0.00000	 132.0	 1	    1.10000	    0.90000;
	162	 1	 378.42	 107.25	 0.0	 -103.907705913	 1	    1.00000	    0.00000	 132.0	 1	    1.10000	    0.90000;
	165	 1	 0.0	 0.0	 0.0	 0.0	 1	    1.00000	    0.00000	 132.0	 1	    1.10000	    0.90000;
	166	 2	 0.0	 0.0	 0.0	 30.8154675476	 1	    1.00000	    0.00000	 132.0	 1	    1.10000	    0.90000;
	170	 1	 0.0	 0.0	 0.0	 0.0	 1	    1.00000	    0.00000	 132.0	 1	    1.10000	    0.90000;
	171	 1	 187.46	 20.45	 0.0	 0.0	 1	    1.00000	    0.00000	 132.0	 1	    1.10000	    0.90000;
	172	 1	 0.0	 0.0	 0.0	 0.0	 1	    1.00000	    0.00000	 132.0	 1	    1.10000	    0.90000;
	174	 2	 0.0	 0.0	 0.0	 0.0	 1	    1.00000	    0.00000	 33.0	 1	    1.10000	    0.90000;
	175	 1	 0.0	 0.0	 0.0	 0.0	 1	    1.00000	    0.00000	 132.0	 1	    1.10000	    0.90000;
	176	 1	 0.0	 0.0	 0.0	 0.0	 1	    1.00000	    0.00000	 132.0	 1	    1.10000	    0.90000;
	177	 1	 328.98	 85.03	 0.0	 82.4597979225	 1	    1.00000	    0.00000	 132.0	 1	    1.10000	    0.90000;
	178	 1	 632.52	 -25.52	 0.0	 110.238720744	 1	    1.00000	    0.00000	 132.0	 1	    1.10000	    0.90000;
	179	 1	 289.62	 81.55	 0.0	 123.996004455	 1	    1.00000	    0.00000	 132.0	 1	    1.10000	    0.90000;
	180	 1	 0.0	 0.0	 0.0	 0.0	 1	    1.00000	    0.00000	 132.0	 1	    1.10000	    0.90000;
	181	 1	 0.0	 0.0	 0.0	 0.0	 1	    1.00000	    0.00000	 132.0	 1	    1.10000	    0.90000;
	182	 1	 105.25	 3.50	 0.0	 118.623397015	 1	    1.00000	    0.00000	 132.0	 1	    1.10000	    0.90000;
	183	 1	 88.60	 13.34	 0.0	 167.431074902	 1	    1.00000	    0.00000	 132.0	 1	    1.10000	    0.90000;
	184	 1	 32.34	 6.27	 0.0	 160.632906526	 1	    1.00000	    0.00000	 132.0	 1	    1.10000	    0.90000;
	185	 1	 139.20	 19.84	 0.0	 0.0	 1	    1.00000	    0.00000	 132.0	 1	    1.10000	    0.90000;
	186	 1	 0.0	 0.0	 0.0	 0.0	 1	    1.00000	    0.00000	 132.0	 1	    1.10000	    0.90000;
	188	 1	 55.24	 17.53	 0.0	 0.0	 1	    1.00000	    0.00000	 132.0	 1	    1.10000	    0.90000;
	189	 1	 8.20	 -0.72	 0.0	 0.0	 1	    1.00000	    0.00000	 132.0	 1	    1.10000	    0.90000;
	191	 1	 212.37	 30.76	 0.0	 59.594300447	 1	    1.00000	    0.00000	 132.0	 1	    1.10000	    0.90000;
	192	 1	 0.0	 0.0	 0.0	 78.9705364779	 1	    1.00000	    0.00000	 132.0	 1	    1.10000	    0.90000;
	193	 1	 24.49	 8.84	 0.0	 0.0	 1	    1.00000	    0.00000	 132.0	 1	    1.10000	    0.90000;
	194	 1	 107.88	 30.82	 0.0	 0.0	 1	    1.00000	    0.00000	 132.0	 1	    1.10000	    0.90000;
	195	 1	 0.0	 0.0	 0.0	 0.0	 1	    1.00000	    0.00000	 132.0	 1	    1.10000	    0.90000;
	196	 1	 92.48	 30.19	 0.0	 0.0	 1	    1.00000	    0.00000	 132.0	 1	    1.10000	    0.90000;
	197	 1	 0.0	 0.0	 0.0	 0.0	 1	    1.00000	    0.00000	 132.0	 1	    1.10000	    0.90000;
	198	 1	 0.0	 0.0	 0.0	 19.3074304163	 1	    1.00000	    0.00000	 132.0	 1	    1.10000	    0.90000;
	199	 1	 0.0	 0.0	 0.0	 0.0	 1	    1.00000	    0.00000	 132.0	 1	    1.10000	    0.90000;
	200	 1	 0.0	 0.0	 0.0	 0.0	 1	    1.00000	    0.00000	 132.0	 1	    1.10000	    0.90000;
	201	 1	 0.0	 0.0	 0.0	 0.0	 1	    1.00000	    0.00000	 132.0	 1	    1.10000	    0.90000;
	202	 1	 45.86	 2.27	 0.0	 6.20785610592	 1	    1.00000	    0.00000	 66.0	 1	    1.10000	    0.90000;
	204	 1	 0.0	 0.0	 0.0	 0.0	 1	    1.00000	    0.00000	 220.0	 1	    1.10000	    0.90000;
	205	 1	 0.0	 0.0	 0.0	 0.0	 1	    1.00000	    0.00000	 132.0	 1	    1.10000	    0.90000;
	208	 1	 37.06	 14.48	 0.0	 0.0	 1	    1.00000	    0.00000	 132.0	 1	    1.10000	    0.90000;
	210	 1	 22.84	 1.39	 0.0	 -25.30242468	 1	    1.00000	    0.00000	 220.0	 1	    1.10000	    0.90000;
	211	 2	 85.80	 0.00	 0.0	 0.0	 1	    1.00000	    0.00000	 110.0	 1	    1.10000	    0.90000;
	212	 1	 85.17	 16.17	 0.0	 0.0	 1	    1.00000	    0.00000	 132.0	 1	    1.10000	    0.90000;
	214	 1	 0.0	 0.0	 0.0	 154.116116226	 1	    1.00000	    0.00000	 132.0	 1	    1.10000	    0.90000;
	215	 1	 0.0	 0.0	 0.0	 -54.2264498049	 1	    1.00000	    0.00000	 220.0	 1	    1.10000	    0.90000;
	216	 1	 16.32	 4.19	 0.0	 0.0	 1	    1.00000	    0.00000	 132.0	 1	    1.10000	    0.90000;
	217	 1	 10.07	 1.24	 0.0	 0.0	 1	    1.00000	    0.00000	 132.0	 1	    1.10000	    0.90000;
	218	 1	 0.0	 0.0	 0.0	 0.0	 1	    1.00000	    0.00000	 132.0	 1	    1.10000	    0.90000;
	219	 1	 2.93	 0.03	 0.0	 0.0	 1	    1.00000	    0.00000	 132.0	 1	    1.10000	    0.90000;
	221	 1	 110.03	 22.37	 0.0	 12.3653618859	 1	    1.00000	    0.00000	 132.0	 1	    1.10000	    0.90000;
	222	 1	 8.49	 3.25	 0.0	 0.0	 1	    1.00000	    0.00000	 132.0	 1	    1.10000	    0.90000;
	223	 1	 20.26	 6.24	 0.0	 0.0	 1	    1.00000	    0.00000	 132.0	 1	    1.10000	    0.90000;
	225	 1	 26.39	 5.27	 0.0	 0.0	 1	    1.00000	    0.00000	 132.0	 1	    1.10000	    0.90000;
...
];

%% generator data
%	bus	Pg	Qg	Qmax	Qmin	Vg	mBase	status	Pmax	Pmin
mpc.gen = [
	3	 550.5	 0.0	 551.0	 -551.0	 1.0	 848.605419222	 1	 1101	 0.0; % NUC
	4	 315.0	 67.5	 450.0	 -315.0	 1.0	 911.269176985	 1	 630	 0.0; % PEL
	5	 470.5	 0.0	 471.0	 -471.0	 1.0	 914.521020425	 1	 941	 0.0; % COW
	6	 555.5	 0.0	 556.0	 -556.0	 1.0	 915.047054039	 1	 1111	 0.0; % COW
	13	 44.5	 0.0	 45.0	 -45.0	 1.0	 41.1012975616	 1	 89	 0.0; % NG
	14	 76.0	 0.0	 76.0	 -76.0	 1.0	 45.4628463134	 1	 152	 0.0; % NG
	15	 23.0	 0.0	 23.0	 -23.0	 1.0	 28.4771000574	 1	 46	 0.0; % PEL
	18	 576.0	 0.0	 576.0	 -576.0	 1.0	 853.151746194	 1	 1152	 0.0; % COW
	19	 236.0	 75.0	 430.0	 -280.0	 1.0	 828.587737327	 1	 472	 0.0; % COW
	20	 450.5	 0.0	 451.0	 -451.0	 1.0	 824.955784731	 1	 901	 0.0; % COW
	21	 605.5	 0.0	 606.0	 -606.0	 1.0	 815.543500367	 1	 1211	 0.0; % NUC
	23	 158.0	 0.0	 158.0	 -158.0	 1.0	 100.1029132	 1	 316	 0.0; % NG
	30	 194.0	 0.0	 194.0	 -194.0	 1.0	 99.532006905	 1	 388	 0.0; % COW
	31	 94.0	 0.0	 94.0	 -94.0	 1.0	 90.588925583	 1	 188	 0.0; % COW
	34	 238.0	 0.0	 238.0	 -238.0	 1.0	 643.693602205	 1	 476	 0.0; % COW
	35	 263.0	 0.0	 263.0	 -263.0	 1.0	 645.286667252	 1	 526	 0.0; % COW
	36	 181.5	 14.0	 210.0	 -182.0	 1.0	 628.984984948	 1	 363	 0.0; % COW
	37	 124.0	 0.0	 124.0	 -124.0	 1.0	 343.07336415	 1	 248	 0.0; % NG
	38	 261.5	 0.0	 262.0	 -262.0	 1.0	 338.426626158	 1	 523	 0.0; % NG
	39	 200.5	 0.0	 201.0	 -201.0	 1.0	 341.423653126	 1	 401	 0.0; % COW
	40	 317.0	 0.0	 317.0	 -317.0	 1.0	 336.309318445	 1	 634	 0.0; % COW
	41	 247.0	 0.0	 247.0	 -247.0	 1.0	 333.510404178	 1	 494	 0.0; % NG
	42	 119.5	 0.0	 120.0	 -120.0	 1.0	 340.135576679	 1	 239	 0.0; % NG
	43	 779.0	 0.0	 779.0	 -779.0	 1.0	 832.440999926	 1	 1558	 0.0; % COW
	56	 1032.0	 0.0	 1032.0	 -1032.0	 1.0	 546.171568101	 1	 2064	 0.0; % COW
	57	 35.5	 0.0	 36.0	 -36.0	 1.0	 46.1062790306	 1	 71	 0.0; % NG
	58	 21.5	 0.0	 22.0	 -22.0	 1.0	 46.5332684994	 1	 43	 0.0; % NG
	62	 28.0	 1.8	 33.6	 -30.0	 1.0	 30.5123773107	 1	 56	 0.0; % NG
	63	 60.5	 0.0	 61.0	 -61.0	 1.0	 29.6002670221	 1	 121	 0.0; % COW
	64	 144.5	 0.0	 145.0	 -145.0	 1.0	 210.894545504	 1	 289	 0.0; % NG
	65	 54.5	 22.5	 100.0	 -55.0	 1.0	 207.096134014	 1	 109	 0.0; % NG
	66	 190.0	 0.0	 190.0	 -190.0	 1.0	 209.434487034	 1	 380	 0.0; % NG
	67	 116.5	 0.0	 117.0	 -117.0	 1.0	 210.867295504	 1	 233	 0.0; % NG
	69	 105.5	 0.0	 106.0	 -106.0	 1.0	 108.814849924	 1	 211	 0.0; % NG
	70	 106.5	 0.0	 107.0	 -107.0	 1.0	 110.332978323	 1	 213	 0.0; % COW
	73	 52.5	 0.0	 53.0	 -53.0	 1.0	 96.4876850574	 1	 105	 0.0; % NG
	74	 113.5	 0.0	 114.0	 -114.0	 1.0	 98.0252477621	 1	 227	 0.0; % NG
	75	 47.0	 0.0	 47.0	 -47.0	 1.0	 96.5074638391	 1	 94	 0.0; % NG
	76	 353.5	 28.0	 410.0	 -354.0	 1.0	 835.119563407	 1	 707	 0.0; % COW
	77	 321.5	 44.0	 410.0	 -322.0	 1.0	 829.49344425	 1	 643	 0.0; % COW
	79	 10.5	 -4.5	 11.0	 -20.0	 1.0	 52.3175148502	 1	 21	 0.0; % NG
	80	 15.0	 -2.5	 15.0	 -20.0	 1.0	 51.9722352538	 1	 30	 0.0; % PEL
	647	 64.5	 0.0	 65.0	 -65.0	 1.0	 86.468466581	 1	 129	 0.0; % NG
	648	 33.5	 0.0	 40.0	 -40.0	 1.0	 90.0339754913	 1	 67	 0.0; % COW
	654	 58.0	 0.0	 58.0	 -58.0	 1.0	 98.9588547303	 1	 116	 0.0; % NG
	655	 27.5	 0.0	 28.0	 -28.0	 1.0	 179.468505843	 1	 55	 0.0; % NG
	656	 10.0	 0.0	 10.0	 -10.0	 1.0	 23.38719214	 1	 20	 0.0; % PEL
	658	 107.5	 0.0	 108.0	 -108.0	 1.0	 189.4753862	 1	 215	 0.0; % NG
	659	 44.0	 0.0	 44.0	 -44.0	 1.0	 70.2652235693	 1	 88	 0.0; % NG
	660	 107.0	 0.0	 107.0	 -107.0	 1.0	 71.0795632929	 1	 214	 0.0; % NG
	665	 135.5	 0.0	 136.0	 -136.0	 1.0	 152.586644803	 1	 271	 0.0; % NG
	668	 92.5	 0.0	 93.0	 -93.0	 1.0	 108.100446895	 1	 185	 0.0; % NG
	672	 212.0	 0.0	 212.0	 -212.0	 1.0	 110.470307528	 1	 424	 0.0; % NG
	674	 158.0	 0.0	 158.0	 -158.0	 1.0	 108.179150129	 1	 316	 0.0; % NG
	680	 76.0	 0.0	 76.0	 -76.0	 1.0	 107.325694307	 1	 152	 0.0; % NG
	681	 165.5	 0.0	 166.0	 -166.0	 1.0	 107.571180568	 1	 331	 0.0; % COW
	682	 89.0	 0.0	 89.0	 -89.0	 1.0	 108.142809283	 1	 178	 0.0; % COW
	684	 152.0	 0.0	 152.0	 -152.0	 1.0	 201.368655755	 1	 304	 0.0; % NG
	685	 112.0	 0.0	 112.0	 -112.0	 1.0	 201.766158745	 1	 224	 0.0; % NG
	687	 305.0	 12.5	 330.0	 -305.0	 1.0	 630.752565959	 1	 610	 0.0; % COW
	688	 352.0	 0.0	 352.0	 -352.0	 1.0	 692.476477046	 1	 704	 0.0; % NUC
	689	 490.0	 0.0	 490.0	 -490.0	 1.0	 743.72757635	 1	 980	 0.0; % COW
	690	 293.0	 18.5	 330.0	 -293.0	 1.0	 651.18307242	 1	 586	 0.0; % COW
	691	 327.0	 1.5	 330.0	 -327.0	 1.0	 647.149878913	 1	 654	 0.0; % COW
	693	 79.0	 0.0	 79.0	 -79.0	 1.0	 115.622949829	 1	 158	 0.0; % NG
	694	 35.5	 0.0	 36.0	 -36.0	 1.0	 69.6506796328	 1	 71	 0.0; % PEL
	695	 41.5	 0.0	 42.0	 -42.0	 1.0	 46.5815921206	 1	 83	 0.0; % NG
	696	 43.0	 0.0	 43.0	 -43.0	 1.0	 114.864380666	 1	 86	 0.0; % COW
	697	 91.5	 0.0	 92.0	 -92.0	 1.0	 73.2351605416	 1	 183	 0.0; % NG
	698	 31.5	 0.0	 32.0	 -32.0	 1.0	 113.018319971	 1	 63	 0.0; % COW
	699	 44.0	 0.0	 44.0	 -44.0	 1.0	 100.974593	 1	 88	 0.0; % NG
	700	 96.5	 0.0	 97.0	 -97.0	 1.0	 100.3645848	 1	 193	 0.0; % NG
	701	 82.0	 0.0	 82.0	 -82.0	 1.0	 100.148673	 1	 164	 0.0; % NG
	702	 209.0	 0.0	 209.0	 -209.0	 1.0	 352.297983418	 1	 418	 0.0; % NG
	703	 294.5	 0.0	 295.0	 -295.0	 1.0	 353.577216341	 1	 589	 0.0; % COW
	708	 32.0	 0.0	 32.0	 -32.0	 1.0	 51.611933054	 1	 64	 0.0; % PEL
	712	 413.5	 0.0	 414.0	 -414.0	 1.0	 626.956900198	 1	 827	 0.0; % COW
	729	 36.0	 0.0	 36.0	 -36.0	 1.0	 100.8087346	 1	 72	 0.0; % NG
	730	 252.0	 0.0	 252.0	 -252.0	 1.0	 476.643849199	 1	 504	 0.0; % COW
	731	 231.5	 0.0	 232.0	 -232.0	 1.0	 413.478915313	 1	 463	 0.0; % NG
	732	 364.5	 0.0	 365.0	 -365.0	 1.0	 481.32745693	 1	 729	 0.0; % NG
	733	 894.5	 0.0	 895.0	 -895.0	 1.0	 475.496667556	 1	 1789	 0.0; % COW
	953	 23.5	 0.0	 24.0	 -24.0	 1.0	 47.1338866906	 1	 47	 0.0; % PEL
	954	 18.5	 0.0	 20.0	 -20.0	 1.0	 46.1283384357	 1	 37	 0.0; % NG
	955	 38.0	 0.0	 38.0	 -38.0	 1.0	 53.53982914	 1	 76	 0.0; % NG
	956	 51.0	 0.0	 51.0	 -51.0	 1.0	 66.5378691188	 1	 102	 0.0; % PEL
	1136	 41.0	 0.0	 41.0	 -41.0	 1.0	 56.4829927751	 1	 82	 0.0; % NG
	1137	 42.0	 0.0	 42.0	 -42.0	 1.0	 70.4010887629	 1	 84	 0.0; % PEL
	1138	 26.5	 0.0	 87.6	 -87.6	 1.0	 55.8495727342	 1	 53	 0.0; % PEL
	1246	 181.5	 0.0	 182.0	 -182.0	 1.0	 240.121851233	 1	 363	 0.0; % NG
	1274	 10.5	 85.0	 390.0	 -220.0	 1.0	 989.914190589	 1	 21	 0.0; % COW
	1184	 58.5	 0.0	 59.0	 -59.0	 1.0	 47.8309784305	 1	 117	 0.0; % NG
	1394	 110.0	 20.0	 150.0	 -110.0	 1.0	 327.941066311	 1	 220	 0.0; % COW
	1395	 62.0	 44.0	 150.0	 -62.0	 1.0	 328.221132472	 1	 124	 0.0; % NG
	1396	 147.0	 1.5	 150.0	 -147.0	 1.0	 333.526844754	 1	 294	 0.0; % COW
	1397	 96.0	 27.0	 150.0	 -96.0	 1.0	 335.174992911	 1	 192	 0.0; % NG
	1398	 69.0	 30.0	 150.0	 -90.0	 1.0	 323.952838556	 1	 138	 0.0; % NG
	1399	 70.5	 35.0	 150.0	 -80.0	 1.0	 321.767278076	 1	 141	 0.0; % NG
	1400	 43.5	 9.6	 180.0	 -160.8	 1.0	 422.53006078	 1	 87	 0.0; % NG
	1401	 29.0	 14.0	 190.0	 -162.0	 1.0	 422.440994499	 1	 58	 0.0; % NG
	1402	 42.0	 18.2	 190.0	 -153.6	 1.0	 416.575441946	 1	 84	 0.0; % COW
	1403	 37.5	 34.4	 190.0	 -121.2	 1.0	 411.612221374	 1	 75	 0.0; % NG
	1407	 39.0	 40.0	 190.0	 -110.0	 1.0	 428.869098612	 1	 78	 0.0; % NG
	1408	 43.5	 40.0	 190.0	 -110.0	 1.0	 413.432336428	 1	 87	 0.0; % COW
	1411	 15.0	 10.0	 70.0	 -50.0	 1.0	 158.354711055	 1	 30	 0.0; % NG
	1412	 11.5	 10.0	 70.0	 -50.0	 1.0	 157.839378211	 1	 23	 0.0; % PEL
	1413	 31.0	 10.0	 70.0	 -50.0	 1.0	 153.609530653	 1	 62	 0.0; % NG
	1414	 15.5	 35.0	 160.0	 -90.0	 1.0	 375.605614146	 1	 31	 0.0; % NG
	1415	 16.0	 0.0	 114.0	 -114.0	 1.0	 209.356691143	 1	 32	 0.0; % COW
	1416	 20.0	 0.0	 109.2	 -109.2	 1.0	 205.18749746	 1	 40	 0.0; % NG
	1419	 142.0	 44.0	 230.0	 -142.0	 1.0	 628.052562263	 1	 284	 0.0; % COW
	1420	 176.0	 22.0	 220.0	 -176.0	 1.0	 638.170104925	 1	 352	 0.0; % COW
	1421	 14.0	 25.0	 260.0	 -210.0	 1.0	 671.132690537	 1	 28	 0.0; % COW
	1425	 28.5	 0.0	 29.0	 -29.0	 1.0	 35.3824854665	 1	 57	 0.0; % PEL
	1426	 36.5	 0.0	 37.0	 -37.0	 1.0	 35.1063570457	 1	 73	 0.0; % COW
	1429	 48.0	 0.0	 48.0	 -48.0	 1.0	 24.0841503046	 1	 96	 0.0; % NG
	1430	 28.0	 0.0	 28.0	 -28.0	 1.0	 24.7130107383	 1	 56	 0.0; % PEL
	1431	 27.5	 0.0	 28.0	 -28.0	 1.0	 23.6974350719	 1	 55	 0.0; % NG
	1432	 50.0	 0.0	 50.0	 -50.0	 1.0	 24.5818638734	 1	 100	 0.0; % NG
	1433	 6.0	 0.0	 10.0	 -10.0	 1.0	 8.76514255389	 1	 12	 0.0; % PEL
	1437	 160.5	 0.0	 161.0	 -161.0	 1.0	 195.968994494	 1	 321	 0.0; % COW
	1438	 44.5	 2.5	 50.0	 -45.0	 1.0	 105.795435098	 1	 89	 0.0; % NG
	1439	 9.0	 15.0	 80.0	 -50.0	 1.0	 189.740778374	 1	 18	 0.0; % NG
	1441	 10.0	 0.0	 20.0	 -20.0	 1.0	 34.7002429671	 1	 20	 0.0; % NG
	1499	 12.0	 -4.2	 90.0	 -98.4	 1.0	 223.215363414	 1	 24	 0.0; % NG
	1500	 35.0	 -1.6	 100.0	 -103.2	 1.0	 230.99071327	 1	 70	 0.0; % NG
	1501	 40.0	 -5.4	 90.0	 -100.8	 1.0	 225.237187796	 1	 80	 0.0; % NG
	1558	 66.5	 50.0	 190.0	 -90.0	 1.0	 416.378375744	 1	 133	 0.0; % NG
	1559	 45.0	 50.0	 190.0	 -90.0	 1.0	 426.8220308	 1	 90	 0.0; % NG
	1560	 73.0	 10.0	 150.0	 -130.0	 1.0	 423.626371388	 1	 146	 0.0; % NG
	1561	 67.0	 50.0	 190.0	 -90.0	 1.0	 515.843401	 1	 134	 0.0; % NG
	1628	 8.0	 25.0	 230.0	 -180.0	 1.0	 579.866190145	 1	 16	 0.0; % COW
	1629	 20.0	 20.0	 230.0	 -190.0	 1.0	 566.034920721	 1	 40	 0.0; % NG
	1636	 16.5	 0.0	 17.0	 -17.0	 1.0	 36.2839481079	 1	 33	 0.0; % NG
	1640	 17.0	 -5.0	 20.0	 -30.0	 1.0	 121.983711871	 1	 34	 0.0; % NG
	1641	 43.0	 0.0	 43.0	 -43.0	 1.0	 21.6044311195	 1	 86	 0.0; % NG
	1659	 15.0	 7.5	 30.0	 -15.0	 1.0	 36.2619373	 1	 30	 0.0; % COW
	1660	 13.5	 7.8	 30.0	 -14.4	 1.0	 37.22684	 1	 27	 0.0; % NG
	1661	 28.5	 0.5	 30.0	 -29.0	 1.0	 36.5241711	 1	 57	 0.0; % NG
	1662	 25.0	 2.5	 30.0	 -25.0	 1.0	 37.0209491	 1	 50	 0.0; % NG
	1665	 37.5	 0.0	 38.0	 -38.0	 1.0	 37.2833587994	 1	 75	 0.0; % NG
	1666	 32.0	 0.0	 32.0	 -32.0	 1.0	 37.5285162406	 1	 64	 0.0; % NG
	1667	 21.5	 4.0	 30.0	 -22.0	 1.0	 36.390120112	 1	 43	 0.0; % NG
	1668	 37.5	 0.0	 38.0	 -38.0	 1.0	 36.1408798766	 1	 75	 0.0; % NG
	1683	 15.0	 0.0	 45.6	 -45.6	 1.0	 89.9570863414	 1	 30	 0.0; % NG
	1684	 94.5	 0.0	 95.0	 -95.0	 1.0	 198.828031234	 1	 189	 0.0; % NG
	1685	 97.5	 0.0	 98.0	 -98.0	 1.0	 194.91053827	 1	 195	 0.0; % NG
	1686	 114.5	 0.0	 115.0	 -115.0	 1.0	 203.925937386	 1	 229	 0.0; % NG
	1690	 112.0	 0.0	 112.0	 -112.0	 1.0	 162.354895275	 1	 224	 0.0; % NG
	1691	 46.5	 11.5	 70.0	 -47.0	 1.0	 159.278157003	 1	 93	 0.0; % NG
	1692	 49.0	 10.5	 70.0	 -49.0	 1.0	 159.933895853	 1	 98	 0.0; % NG
	1693	 61.5	 24.0	 110.0	 -62.0	 1.0	 266.940658889	 1	 123	 0.0; % COW
	1694	 84.5	 12.5	 110.0	 -85.0	 1.0	 272.70431192	 1	 169	 0.0; % NG
	1695	 170.0	 0.0	 170.0	 -170.0	 1.0	 262.876889418	 1	 340	 0.0; % NG
	1696	 32.5	 15.0	 70.0	 -40.0	 1.0	 175.505024694	 1	 65	 0.0; % COW
	1697	 72.0	 0.0	 72.0	 -72.0	 1.0	 88.5158615344	 1	 144	 0.0; % COW
	1699	 104.0	 0.0	 104.0	 -104.0	 1.0	 50.0930213746	 1	 208	 0.0; % NG
	1705	 35.0	 0.0	 35.0	 -35.0	 1.0	 34.96740921	 1	 70	 0.0; % COW
	1706	 16.5	 0.0	 17.0	 -17.0	 1.0	 100.7653224	 1	 33	 0.0; % NG
	1708	 22.5	 -3.5	 23.0	 -30.0	 1.0	 77.61118044	 1	 45	 0.0; % NG
	1709	 29.0	 0.0	 40.0	 -40.0	 1.0	 109.9329537	 1	 58	 0.0; % NG
	1710	 21.0	 0.0	 21.0	 -21.0	 1.0	 50.33152763	 1	 42	 0.0; % NG
	12	 12.5	 0.0	 714.0	 -714.0	 1.0	 1.08747929754	 1	 25	 0.0; % COW
	24	 127.0	 0.0	 127.0	 -127.0	 1.0	 0.793884932048	 1	 254	 0.0; % NG
	25	 259.0	 0.0	 259.0	 -259.0	 1.0	 0.716493531626	 1	 518	 0.0; % COW
	26	 73.5	 0.0	 74.0	 -74.0	 1.0	 0.500407203184	 1	 147	 0.0; % COW
	28	 60.5	 -54.5	 61.0	 -170.0	 1.0	 1.0770017568	 1	 121	 0.0; % NG
	61	 906.5	 0.0	 1122.0	 -1122.0	 1.0	 1.8038791959	 1	 1813	 0.0; % NG
	142	 544.5	 0.0	 545.0	 -545.0	 1.0	 9.0	 1	 1089	 0.0; % NUC
	166	 13.5	 25.0	 160.0	 -110.0	 1.0	 2.7390638832	 1	 27	 0.0; % NG
	174	 236.5	 0.0	 237.0	 -237.0	 1.0	 0.90594362457	 1	 473	 0.0; % COW
	211	 13.5	 0.0	 150.0	 -150.0	 1.0	 1.0751540007	 1	 27	 0.0; % NG
	570	 24.0	 0.0	 24.0	 -24.0	 1.0	 0.603422971425	 1	 48	 0.0; % NG
	651	 34.0	 0.0	 34.0	 -34.0	 1.0	 0.681386511933	 1	 68	 0.0; % PEL
	652	 24.5	 0.0	 25.0	 -25.0	 1.0	 0.722928195973	 1	 49	 0.0; % NG
	661	 80.0	 0.0	 80.0	 -80.0	 1.0	 0.805258456164	 1	 160	 0.0; % NG
	677	 99.0	 0.0	 99.0	 -99.0	 1.0	 0.8649797139	 1	 198	 0.0; % NG
	683	 118.0	 0.0	 118.0	 -118.0	 1.0	 0.80693756034	 1	 236	 0.0; % NG
	707	 30.0	 -5.0	 40.0	 -50.0	 1.0	 0.832871174747	 1	 60	 0.0; % NG
	715	 46.0	 0.0	 46.0	 -46.0	 1.0	 0.715440445794	 1	 92	 0.0; % NG
	721	 113.5	 -45.6	 148.8	 -240.0	 1.0	 2.80830472911	 1	 227	 0.0; % NG
	724	 92.0	 9.0	 110.0	 -92.0	 1.0	 1.75262014933	 1	 184	 0.0; % NG
	725	 135.0	 0.0	 135.0	 -135.0	 1.0	 1.74613961108	 1	 270	 0.0; % NG
	728	 158.0	 0.0	 158.0	 -158.0	 1.0	 1.9724738834	 1	 316	 0.0; % NG
	881	 46.0	 0.0	 46.0	 -46.0	 1.0	 0.640437450315	 1	 92	 0.0; % NG
	882	 34.5	 0.0	 35.0	 -35.0	 1.0	 0.50982324399	 1	 69	 0.0; % COW
	644	 34.0	 0.0	 34.0	 -34.0	 1.0	 0.0789633095503	 1	 68	 0.0; % NG
	986	 172.0	 -39.0	 172.0	 -250.0	 1.0	 2.74416846883	 1	 344	 0.0; % COW
	1090	 85.5	 40.0	 170.0	 -90.0	 1.0	 1.05007658096	 1	 171	 0.0; % NG
	1252	 48.0	 15.0	 110.0	 -80.0	 1.0	 1.09975473457	 1	 96	 0.0; % COW
	1253	 52.0	 15.0	 110.0	 -80.0	 1.0	 1.05775765323	 1	 104	 0.0; % COW
	1255	 22.5	 15.0	 110.0	 -80.0	 1.0	 1.09717493209	 1	 45	 0.0; % NG
	1265	 62.5	 0.0	 110.0	 -110.0	 1.0	 1.07825675532	 1	 125	 0.0; % NG
	1307	 157.5	 1.0	 160.0	 -158.0	 1.0	 1.05003915667	 1	 315	 0.0; % COW
	1516	 912.0	 0.0	 912.0	 -912.0	 1.0	 1.06145243761	 1	 1824	 0.0; % PEL
	1520	 434.0	 0.0	 434.0	 -434.0	 1.0	 1.08770793499	 1	 868	 0.0; % NG
	1531	 65.5	 0.0	 538.8	 -538.8	 1.0	 1.08463595104	 1	 131	 0.0; % NG
	1534	 161.5	 -4.4	 170.0	 -178.8	 1.0	 1.06086461891	 1	 323	 0.0; % NG
	1562	 1828.5	 0.0	 1829.0	 -1829.0	 1.0	 1.06119855433	 1	 3657	 0.0; % NG
	1564	 96.0	 -11.2	 280.0	 -302.4	 1.0	 1.07012154777	 1	 192	 0.0; % NG
...
];

%% generator cost data
%	2	startup	shutdown	n	c(n-1)	...	c0
mpc.gencost = [
	2	 350.0	 0.0	 3	   0.000000	   7.095890	   0.000000; % NUC
	2	 350.0	 0.0	 3	   0.000000	  17.803653	   0.000000; % PEL
	2	 350.0	 0.0	 3	   0.000000	  17.803653	   0.000000; % COW
	2	 350.0	 0.0	 3	   0.000000	  17.803653	   0.000000; % COW
	2	 5.0	 0.0	 3	   0.000000	  13.472603	   0.000000; % NG
	2	 100.0	 0.0	 3	   0.000000	   9.921005	   0.000000; % NG
	2	 0.0	 0.0	 3	   0.000000	   0.001000	   0.000000; % PEL
	2	 350.0	 0.0	 3	   0.000000	  17.803653	   0.000000; % COW
	2	 0.0	 0.0	 3	   0.000000	   0.001000	   0.000000; % COW
	2	 100.0	 0.0	 3	   0.000000	   9.921005	   0.000000; % COW
	2	 100.0	 0.0	 3	   0.000000	   9.921005	   0.000000; % NUC
	2	 0.0	 0.0	 3	   0.000000	   0.001000	   0.000000; % NG
	2	 0.0	 0.0	 3	   0.000000	   0.001000	   0.000000; % COW
	2	 5.0	 0.0	 3	   0.000000	  14.908676	   0.000000; % COW
	2	 100.0	 0.0	 3	   0.000000	   9.921005	   0.000000; % COW
	2	 100.0	 0.0	 3	   0.000000	   9.921005	   0.000000; % COW
	2	 0.0	 0.0	 3	   0.000000	   0.001000	   0.000000; % COW
	2	 0.0	 0.0	 3	   0.000000	   0.001000	   0.000000; % NG
	2	 0.0	 0.0	 3	   0.000000	   0.001000	   0.000000; % NG
	2	 0.0	 0.0	 3	   0.000000	   0.001000	   0.000000; % COW
	2	 0.0	 0.0	 3	   0.000000	   0.001000	   0.000000; % COW
	2	 0.0	 0.0	 3	   0.000000	   0.001000	   0.000000; % NG
	2	 0.0	 0.0	 3	   0.000000	   0.001000	   0.000000; % NG
	2	 350.0	 0.0	 3	   0.000000	   7.095890	   0.000000; % COW
	2	 0.0	 0.0	 3	   0.000000	   0.001000	   0.000000; % COW
	2	 5.0	 0.0	 3	   0.000000	  14.908676	   0.000000; % NG
	2	 0.0	 0.0	 3	   0.000000	   0.001000	   0.000000; % NG
	2	 100.0	 0.0	 3	   0.000000	   9.921005	   0.000000; % NG
	2	 100.0	 0.0	 3	   0.000000	   9.921005	   0.000000; % COW
	2	 0.0	 0.0	 3	   0.000000	   0.001000	   0.000000; % NG
	2	 0.0	 0.0	 3	   0.000000	   0.001000	   0.000000; % NG
	2	 0.0	 0.0	 3	   0.000000	   0.001000	   0.000000; % NG
	2	 0.0	 0.0	 3	   0.000000	   0.001000	   0.000000; % NG
	2	 0.0	 0.0	 3	   0.000000	   0.001000	   0.000000; % NG
	2	 0.0	 0.0	 3	   0.000000	   0.001000	   0.000000; % COW
	2	 0.0	 0.0	 3	   0.000000	   0.001000	   0.000000; % NG
	2	 0.0	 0.0	 3	   0.000000	   0.001000	   0.000000; % NG
	2	 0.0	 0.0	 3	   0.000000	   0.001000	   0.000000; % NG
	2	 350.0	 0.0	 3	   0.000000	   7.095890	   0.000000; % COW
	2	 350.0	 0.0	 3	   0.000000	   7.095890	   0.000000; % COW
	2	 0.0	 0.0	 3	   0.000000	   0.001000	   0.000000; % NG
	2	 0.0	 0.0	 3	   0.000000	   0.001000	   0.000000; % PEL
	2	 0.0	 0.0	 3	   0.000000	   0.001000	   0.000000; % NG
	2	 0.0	 0.0	 3	   0.000000	   0.001000	   0.000000; % COW
	2	 0.0	 0.0	 3	   0.000000	   0.001000	   0.000000; % NG
	2	 100.0	 0.0	 3	   0.000000	  12.021005	   0.000000; % NG
	2	 0.0	 0.0	 3	   0.000000	   0.001000	   0.000000; % PEL
	2	 0.0	 0.0	 3	   0.000000	   0.001000	   0.000000; % NG
	2	 0.0	 0.0	 3	   0.000000	   0.001000	   0.000000; % NG
	2	 0.0	 0.0	 3	   0.000000	   0.001000	   0.000000; % NG
	2	 100.0	 0.0	 3	   0.000000	  12.021005	   0.000000; % NG
	2	 0.0	 0.0	 3	   0.000000	   0.001000	   0.000000; % NG
	2	 0.0	 0.0	 3	   0.000000	   0.001000	   0.000000; % NG
	2	 0.0	 0.0	 3	   0.000000	   0.001000	   0.000000; % NG
	2	 0.0	 0.0	 3	   0.000000	   0.001000	   0.000000; % NG
	2	 0.0	 0.0	 3	   0.000000	   0.001000	   0.000000; % COW
	2	 0.0	 0.0	 3	   0.000000	   0.001000	   0.000000; % COW
	2	 100.0	 0.0	 3	   0.000000	  12.021005	   0.000000; % NG
	2	 100.0	 0.0	 3	   0.000000	  12.021005	   0.000000; % NG
	2	 350.0	 0.0	 3	   0.000000	  17.803653	   0.000000; % COW
	2	 350.0	 0.0	 3	   0.000000	  17.803653	   0.000000; % NUC
	2	 350.0	 0.0	 3	   0.000000	  17.803653	   0.000000; % COW
	2	 350.0	 0.0	 3	   0.000000	  17.803653	   0.000000; % COW
	2	 350.0	 0.0	 3	   0.000000	  17.803653	   0.000000; % COW
	2	 100.0	 0.0	 3	   0.000000	  12.021005	   0.000000; % NG
	2	 0.0	 0.0	 3	   0.000000	   0.001000	   0.000000; % PEL
	2	 0.0	 0.0	 3	   0.000000	   0.001000	   0.000000; % NG
	2	 100.0	 0.0	 3	   0.000000	  12.021005	   0.000000; % COW
	2	 0.0	 0.0	 3	   0.000000	   0.001000	   0.000000; % NG
	2	 0.0	 0.0	 3	   0.000000	   0.001000	   0.000000; % COW
	2	 0.0	 0.0	 3	   0.000000	   0.001000	   0.000000; % NG
	2	 0.0	 0.0	 3	   0.000000	   0.001000	   0.000000; % NG
	2	 100.0	 0.0	 3	   0.000000	  12.021005	   0.000000; % NG
	2	 0.0	 0.0	 3	   0.000000	   0.001000	   0.000000; % NG
	2	 100.0	 0.0	 3	   0.000000	  12.021005	   0.000000; % COW
	2	 0.0	 0.0	 3	   0.000000	   0.001000	   0.000000; % PEL
	2	 350.0	 0.0	 3	   0.000000	  17.803653	   0.000000; % COW
	2	 0.0	 0.0	 3	   0.000000	   0.001000	   0.000000; % NG
	2	 100.0	 0.0	 3	   0.000000	  12.021005	   0.000000; % COW
	2	 0.0	 0.0	 3	   0.000000	   0.001000	   0.000000; % NG
	2	 100.0	 0.0	 3	   0.000000	  12.021005	   0.000000; % NG
	2	 0.0	 0.0	 3	   0.000000	   0.001000	   0.000000; % COW
	2	 0.0	 0.0	 3	   0.000000	   0.001000	   0.000000; % PEL
	2	 0.0	 0.0	 3	   0.000000	   0.001000	   0.000000; % NG
	2	 0.0	 0.0	 3	   0.000000	   0.001000	   0.000000; % NG
	2	 0.0	 0.0	 3	   0.000000	   0.001000	   0.000000; % PEL
	2	 62.5	 0.0	 3	   0.000000	  10.081279	   0.000000; % NG
	2	 0.0	 0.0	 3	   0.000000	   0.001000	   0.000000; % PEL
	2	 62.5	 0.0	 3	   0.000000	  10.081279	   0.000000; % PEL
	2	 62.5	 0.0	 3	   0.000000	  10.081279	   0.000000; % NG
	2	 350.0	 0.0	 3	   0.000000	   7.164384	   0.000000; % COW
	2	 62.5	 0.0	 3	   0.000000	  10.081279	   0.000000; % NG
	2	 350.0	 0.0	 3	   0.000000	   7.164384	   0.000000; % COW
	2	 350.0	 0.0	 3	   0.000000	   7.164384	   0.000000; % NG
	2	 0.0	 0.0	 3	   0.000000	   0.001000	   0.000000; % COW
	2	 0.0	 0.0	 3	   0.000000	   0.001000	   0.000000; % NG
	2	 350.0	 0.0	 3	   0.000000	   7.164384	   0.000000; % NG
	2	 350.0	 0.0	 3	   0.000000	   7.164384	   0.000000; % NG
	2	 350.0	 0.0	 3	   0.000000	   7.164384	   0.000000; % NG
	2	 350.0	 0.0	 3	   0.000000	   7.164384	   0.000000; % NG
	2	 350.0	 0.0	 3	   0.000000	   7.164384	   0.000000; % COW
	2	 62.5	 0.0	 3	   0.000000	  10.081279	   0.000000; % NG
	2	 62.5	 0.0	 3	   0.000000	  10.081279	   0.000000; % NG
	2	 62.5	 0.0	 3	   0.000000	  10.081279	   0.000000; % COW
	2	 62.5	 0.0	 3	   0.000000	  10.081279	   0.000000; % NG
	2	 62.5	 0.0	 3	   0.000000	  10.081279	   0.000000; % PEL
	2	 62.5	 0.0	 3	   0.000000	  10.081279	   0.000000; % NG
	2	 350.0	 0.0	 3	   0.000000	   7.164384	   0.000000; % NG
	2	 62.5	 0.0	 3	   0.000000	  10.081279	   0.000000; % COW
	2	 62.5	 0.0	 3	   0.000000	  10.081279	   0.000000; % NG
	2	 350.0	 0.0	 3	   0.000000	   7.164384	   0.000000; % COW
	2	 350.0	 0.0	 3	   0.000000	   7.164384	   0.000000; % COW
	2	 350.0	 0.0	 3	   0.000000	   7.164384	   0.000000; % COW
	2	 62.5	 0.0	 3	   0.000000	  10.081279	   0.000000; % PEL
	2	 62.5	 0.0	 3	   0.000000	  10.081279	   0.000000; % COW
	2	 0.0	 0.0	 3	   0.000000	   0.001000	   0.000000; % NG
	2	 62.5	 0.0	 3	   0.000000	  10.081279	   0.000000; % PEL
	2	 0.0	 0.0	 3	   0.000000	   0.001000	   0.000000; % NG
	2	 0.0	 0.0	 3	   0.000000	   0.001000	   0.000000; % NG
	2	 0.0	 0.0	 3	   0.000000	   0.001000	   0.000000; % PEL
	2	 62.5	 0.0	 3	   0.000000	  10.081279	   0.000000; % COW
	2	 350.0	 0.0	 3	   0.000000	   7.164384	   0.000000; % NG
	2	 350.0	 0.0	 3	   0.000000	   7.164384	   0.000000; % NG
	2	 62.5	 0.0	 3	   0.000000	  10.081279	   0.000000; % NG
	2	 62.5	 0.0	 3	   0.000000	  10.081279	   0.000000; % NG
	2	 62.5	 0.0	 3	   0.000000	  10.081279	   0.000000; % NG
	2	 62.5	 0.0	 3	   0.000000	  10.081279	   0.000000; % NG
	2	 62.5	 0.0	 3	   0.000000	  10.081279	   0.000000; % NG
	2	 350.0	 0.0	 3	   0.000000	   7.164384	   0.000000; % NG
	2	 350.0	 0.0	 3	   0.000000	   7.164384	   0.000000; % NG
	2	 350.0	 0.0	 3	   0.000000	   7.164384	   0.000000; % NG
	2	 350.0	 0.0	 3	   0.000000	   7.164384	   0.000000; % COW
	2	 350.0	 0.0	 3	   0.000000	   7.164384	   0.000000; % NG
	2	 0.0	 0.0	 3	   0.000000	   0.001000	   0.000000; % NG
	2	 0.0	 0.0	 3	   0.000000	   0.001000	   0.000000; % NG
	2	 0.0	 0.0	 3	   0.000000	   0.001000	   0.000000; % NG
	2	 0.0	 0.0	 3	   0.000000	   0.001000	   0.000000; % COW
	2	 0.0	 0.0	 3	   0.000000	   0.001000	   0.000000; % NG
	2	 0.0	 0.0	 3	   0.000000	   0.001000	   0.000000; % NG
	2	 0.0	 0.0	 3	   0.000000	   0.001000	   0.000000; % NG
	2	 0.0	 0.0	 3	   0.000000	   0.001000	   0.000000; % NG
	2	 0.0	 0.0	 3	   0.000000	   0.001000	   0.000000; % NG
	2	 100.0	 0.0	 3	   0.000000	  12.021005	   0.000000; % NG
	2	 100.0	 0.0	 3	   0.000000	  12.021005	   0.000000; % NG
	2	 0.0	 0.0	 3	   0.000000	   0.001000	   0.000000; % NG
	2	 100.0	 0.0	 3	   0.000000	  12.021005	   0.000000; % NG
	2	 100.0	 0.0	 3	   0.000000	  12.021005	   0.000000; % NG
	2	 100.0	 0.0	 3	   0.000000	  12.021005	   0.000000; % NG
	2	 0.0	 0.0	 3	   0.000000	   0.001000	   0.000000; % NG
	2	 0.0	 0.0	 3	   0.000000	   0.001000	   0.000000; % NG
	2	 100.0	 0.0	 3	   0.000000	  12.021005	   0.000000; % NG
	2	 100.0	 0.0	 3	   0.000000	  12.021005	   0.000000; % COW
	2	 100.0	 0.0	 3	   0.000000	  12.021005	   0.000000; % NG
	2	 100.0	 0.0	 3	   0.000000	  12.021005	   0.000000; % NG
	2	 100.0	 0.0	 3	   0.000000	  12.021005	   0.000000; % COW
	2	 0.0	 0.0	 3	   0.000000	   0.001000	   0.000000; % COW
	2	 0.0	 0.0	 3	   0.000000	   0.001000	   0.000000; % NG
	2	 0.0	 0.0	 3	   0.000000	   0.001000	   0.000000; % COW
	2	 0.0	 0.0	 3	   0.000000	   0.001000	   0.000000; % NG
	2	 0.0	 0.0	 3	   0.000000	   0.001000	   0.000000; % NG
	2	 0.0	 0.0	 3	   0.000000	   0.001000	   0.000000; % NG
	2	 0.0	 0.0	 3	   0.000000	   0.001000	   0.000000; % NG
	2	 0.0	 0.0	 3	   0.000000	   0.001000	   0.000000; % COW
	2	 0.0	 0.0	 3	   0.000000	   0.001000	   0.000000; % NG
	2	 0.0	 0.0	 3	   0.000000	   0.001000	   0.000000; % COW
	2	 0.0	 0.0	 3	   0.000000	   0.001000	   0.000000; % COW
	2	 0.0	 0.0	 3	   0.000000	   0.001000	   0.000000; % NG
	2	 0.0	 0.0	 3	   0.000000	   0.001000	   0.000000; % NG
	2	 0.0	 0.0	 3	   0.000000	   0.001000	   0.000000; % NUC
	2	 0.0	 0.0	 3	   0.000000	   0.001000	   0.000000; % NG
	2	 0.0	 0.0	 3	   0.000000	   0.001000	   0.000000; % COW
	2	 0.0	 0.0	 3	   0.000000	   0.001000	   0.000000; % NG
	2	 0.0	 0.0	 3	   0.000000	   0.001000	   0.000000; % NG
	2	 0.0	 0.0	 3	   0.000000	   0.001000	   0.000000; % PEL
	2	 0.0	 0.0	 3	   0.000000	   0.001000	   0.000000; % NG
	2	 0.0	 0.0	 3	   0.000000	   0.001000	   0.000000; % NG
	2	 0.0	 0.0	 3	   0.000000	   0.001000	   0.000000; % NG
	2	 0.0	 0.0	 3	   0.000000	   0.001000	   0.000000; % NG
	2	 0.0	 0.0	 3	   0.000000	   0.001000	   0.000000; % NG
	2	 0.0	 0.0	 3	   0.000000	   0.001000	   0.000000; % NG
	2	 0.0	 0.0	 3	   0.000000	   0.001000	   0.000000; % NG
	2	 0.0	 0.0	 3	   0.000000	   0.001000	   0.000000; % NG
	2	 0.0	 0.0	 3	   0.000000	   0.001000	   0.000000; % NG
	2	 0.0	 0.0	 3	   0.000000	   0.001000	   0.000000; % NG
	2	 0.0	 0.0	 3	   0.000000	   0.001000	   0.000000; % NG
	2	 0.0	 0.0	 3	   0.000000	   0.001000	   0.000000; % COW
	2	 0.0	 0.0	 3	   0.000000	   0.001000	   0.000000; % NG
	2	 0.0	 0.0	 3	   0.000000	   0.001000	   0.000000; % COW
	2	 0.0	 0.0	 3	   0.000000	   0.001000	   0.000000; % NG
	2	 0.0	 0.0	 3	   0.000000	   0.001000	   0.000000; % COW
	2	 0.0	 0.0	 3	   0.000000	   0.001000	   0.000000; % COW
	2	 0.0	 0.0	 3	   0.000000	   0.001000	   0.000000; % NG
	2	 0.0	 0.0	 3	   0.000000	   0.001000	   0.000000; % NG
	2	 0.0	 0.0	 3	   0.000000	   0.001000	   0.000000; % COW
	2	 0.0	 0.0	 3	   0.000000	   0.001000	   0.000000; % PEL
	2	 0.0	 0.0	 3	   0.000000	   0.001000	   0.000000; % NG
	2	 0.0	 0.0	 3	   0.000000	   0.001000	   0.000000; % NG
	2	 0.0	 0.0	 3	   0.000000	   0.001000	   0.000000; % NG
	2	 0.0	 0.0	 3	   0.000000	   0.001000	   0.000000; % NG
	2	 0.0	 0.0	 3	   0.000000	   0.001000	   0.000000; % NG
...
];

%% branch data
%	fbus	tbus	r	x	b	rateA	rateB	rateC	ratio	angle	status	angmin	angmax
mpc.branch = [
	28	 292	 0.021394604867	 0.0494214698071	 0.0128010240958	 129.0	 129.0	 129.0	 0.0	 0.0	 1	 -30.0	 30.0;
	28	 350	 0.0202366658864	 0.050316143306	 0.105624716648	 135.0	 135.0	 135.0	 0.0	 0.0	 1	 -30.0	 30.0;
	52	 8	 0.0268534457937	 0.191657423545	 5.19511746848e-05	 43.0	 43.0	 43.0	 0.0	 0.0	 1	 -30.0	 30.0;
	53	 8	 0.0269840798896	 0.18570208698	 5.17387384688e-05	 42.0	 42.0	 42.0	 0.0	 0.0	 1	 -30.0	 30.0;
	59	 260	 0.0111227827829	 0.0297112037292	 0.00622045313017	 141.0	 141.0	 141.0	 0.0	 0.0	 1	 -30.0	 30.0;
	59	 267	 0.0457720959614	 0.120590632657	 0.0257924747265	 140.0	 140.0	 140.0	 0.0	 0.0	 1	 -30.0	 30.0;
	59	 304	 0.00677941394792	 0.01860772976	 0.00402505277148	 143.0	 143.0	 143.0	 0.0	 0.0	 1	 -30.0	 30.0;
	85	 87	 0.00113895501043	 0.0139358874875	 1.68331721934	 1342.0	 1342.0	 1342.0	 0.0	 0.0	 1	 -30.0	 30.0;
	85	 87	 0.00112250498219	 0.0137716883383	 1.69542150214	 1344.0	 1344.0	 1344.0	 0.0	 0.0	 1	 -30.0	 30.0;
	86	 126	 0.000640331621062	 0.00644689027518	 0.0800716374977	 787.0	 787.0	 787.0	 0.0	 0.0	 1	 -30.0	 30.0;
	86	 126	 0.000620334336383	 0.00614848183408	 0.0824073624051	 779.0	 779.0	 779.0	 0.0	 0.0	 1	 -30.0	 30.0;
	86	 142	 0.000859031650457	 0.00869119072488	 0.11279631523	 789.0	 789.0	 789.0	 0.0	 0.0	 1	 -30.0	 30.0;
	86	 143	 0.00311860254187	 0.0305234527894	 0.456269018371	 773.0	 773.0	 773.0	 0.0	 0.0	 1	 -30.0	 30.0;
	88	 115	 0.000639001402828	 0.00645486855557	 0.0940123306083	 788.0	 788.0	 788.0	 0.0	 0.0	 1	 -30.0	 30.0;
	88	 131	 0.00143587492768	 0.0146445790985	 0.184206889048	 793.0	 793.0	 793.0	 0.0	 0.0	 1	 -30.0	 30.0;
	88	 133	 0.00069808988584	 0.00684698190891	 0.093381478558	 774.0	 774.0	 774.0	 0.0	 0.0	 1	 -30.0	 30.0;
	12	 99	 0.00549684407743	 0.0400146771576	 0.527701176391	 646.0	 646.0	 646.0	 0.0	 0.0	 1	 -30.0	 30.0;
	12	 104	 0.00366285891487	 0.0465747794057	 0.730405217833	 907.0	 907.0	 907.0	 0.0	 0.0	 1	 -30.0	 30.0;
	12	 135	 0.00244048918809	 0.0292885130499	 0.471378581993	 875.0	 875.0	 875.0	 0.0	 0.0	 1	 -30.0	 30.0;
	12	 138	 0.00411569981153	 0.0332833799582	 0.405787904265	 689.0	 689.0	 689.0	 0.0	 0.0	 1	 -30.0	 30.0;
	12	 138	 0.00546429846889	 0.0353439427274	 0.432098202102	 601.0	 601.0	 601.0	 0.0	 0.0	 1	 -30.0	 30.0;
	91	 100	 0.000321432399482	 0.00342598839544	 0.0396145135629	 814.0	 814.0	 814.0	 0.0	 0.0	 1	 -30.0	 30.0;
	91	 114	 0.00297891231976	 0.0213626300035	 0.268139162533	 640.0	 640.0	 640.0	 0.0	 0.0	 1	 -30.0	 30.0;
	91	 115	 0.0011140258457	 0.012950547383	 0.148020505719	 859.0	 859.0	 859.0	 0.0	 0.0	 1	 -30.0	 30.0;
	92	 116	 0.0010885510706	 0.0147748298171	 1.70060905458	 1429.0	 1429.0	 1429.0	 0.0	 0.0	 1	 -30.0	 30.0;
	92	 116	 0.00111062633821	 0.0141443958226	 1.63467305514	 1375.0	 1375.0	 1375.0	 0.0	 0.0	 1	 -30.0	 30.0;
	93	 114	 0.000359209547672	 0.00485193630699	 0.0955267834691	 940.0	 940.0	 940.0	 0.0	 0.0	 1	 -30.0	 30.0;
	93	 114	 0.000366592991229	 0.00458748208046	 0.0949664989975	 898.0	 898.0	 898.0	 0.0	 0.0	 1	 -30.0	 30.0;
	93	 119	 0.00239067232145	 0.0178434936036	 0.215029373059	 656.0	 656.0	 656.0	 0.0	 0.0	 1	 -30.0	 30.0;
	93	 61	 0.00457242868733	 0.0341802014256	 0.407753371372	 657.0	 657.0	 657.0	 0.0	 0.0	 1	 -30.0	 30.0;
	94	 116	 0.00174763734741	 0.022586247577	 2.54752620158	 1387.0	 1387.0	 1387.0	 0.0	 0.0	 1	 -30.0	 30.0;
	94	 149	 0.000847776788436	 0.0115718092226	 1.35976266848	 1434.0	 1434.0	 1434.0	 0.0	 0.0	 1	 -30.0	 30.0;
	95	 110	 0.000187652088038	 0.0017710291672	 0.0240028528251	 756.0	 756.0	 756.0	 0.0	 0.0	 1	 -30.0	 30.0;
	95	 110	 0.000183095657646	 0.00171524613628	 0.0256212910518	 753.0	 753.0	 753.0	 0.0	 0.0	 1	 -30.0	 30.0;
	95	 127	 0.00506273974421	 0.0474577933282	 0.680182712753	 753.0	 753.0	 753.0	 0.0	 0.0	 1	 -30.0	 30.0;
	95	 61	 0.0056409944479	 0.0540736278638	 0.777291948452	 764.0	 764.0	 764.0	 0.0	 0.0	 1	 -30.0	 30.0;
	109	 23	 0.00373997773849	 0.115221545714	 0.00693885475539	 275.0	 275.0	 275.0	 1.0	 0.0	 1	 -30.0	 30.0;
	97	 98	 0.00244661896547	 0.0193509381012	 0.228346007326	 679.0	 679.0	 679.0	 0.0	 0.0	 1	 -30.0	 30.0;
	97	 109	 0.00548156380633	 0.0399409118961	 0.479734289354	 646.0	 646.0	 646.0	 0.0	 0.0	 1	 -30.0	 30.0;
	98	 113	 0.00410372099094	 0.0298282317569	 0.36499138506	 1483.83752196	 1483.83752196	 1483.83752196	 0.0	 0.0	 1	 -30.0	 30.0;
	98	 141	 0.00380846082435	 0.0318342028278	 0.378109372368	 703.0	 703.0	 703.0	 0.0	 0.0	 1	 -30.0	 30.0;
	98	 147	 0.00144971191581	 0.0148683019465	 0.190007413414	 796.0	 796.0	 796.0	 0.0	 0.0	 1	 -30.0	 30.0;
	98	 151	 0.00162789548566	 0.0132292583638	 0.157336153255	 691.0	 691.0	 691.0	 0.0	 0.0	 1	 -30.0	 30.0;
	99	 111	 0.00709601896857	 0.0541740331317	 0.653267850244	 665.0	 665.0	 665.0	 0.0	 0.0	 1	 -30.0	 30.0;
	100	 109	 0.0016638609621	 0.0135379533046	 0.155204390588	 691.0	 691.0	 691.0	 0.0	 0.0	 1	 -30.0	 30.0;
	100	 114	 0.00274414111996	 0.0209816570092	 0.261717821103	 666.0	 666.0	 666.0	 0.0	 0.0	 1	 -30.0	 30.0;
	100	 133	 0.00187141090141	 0.0214288060044	 0.271307045361	 851.0	 851.0	 851.0	 0.0	 0.0	 1	 -30.0	 30.0;
	101	 144	 0.00596442934383	 0.0461559542938	 0.559919314951	 670.0	 670.0	 670.0	 0.0	 0.0	 1	 -30.0	 30.0;
	102	 106	 0.00025482832343	 0.00251797523515	 1.25256066602	 778.0	 778.0	 778.0	 0.0	 0.0	 1	 -30.0	 30.0;
	102	 106	 0.000271172397341	 0.00264301669003	 1.24495918042	 771.0	 771.0	 771.0	 0.0	 0.0	 1	 -30.0	 30.0;
	103	 201	 0.0342950132478	 0.0992413363681	 0.0261390999148	 148.0	 148.0	 148.0	 0.0	 0.0	 1	 -30.0	 30.0;
	103	 286	 0.035639496887	 0.106538443246	 0.0240656897904	 151.0	 151.0	 151.0	 0.0	 0.0	 1	 -30.0	 30.0;
	104	 135	 0.00133827123632	 0.0174409449153	 0.265438508678	 920.0	 920.0	 920.0	 0.0	 0.0	 1	 -30.0	 30.0;
	104	 1623	 0.00365767864132	 0.0444782286807	 0.699423085464	 882.0	 882.0	 882.0	 0.0	 0.0	 1	 -30.0	 30.0;
	104	 1623	 0.00364630651943	 0.044199198991	 0.733303589703	 881.0	 881.0	 881.0	 0.0	 0.0	 1	 -30.0	 30.0;
	105	 133	 0.00036685771046	 0.0044166181368	 3.3301633185	 877.0	 877.0	 877.0	 0.0	 0.0	 1	 -30.0	 30.0;
	106	 61	 0.0002553061496	 0.00304198491974	 0.0372119472607	 871.0	 871.0	 871.0	 0.0	 0.0	 1	 -30.0	 30.0;
	106	 61	 0.000262628870006	 0.00290709658673	 0.0371348252762	 833.0	 833.0	 833.0	 0.0	 0.0	 1	 -30.0	 30.0;
	107	 133	 0.000599083999917	 0.00585149085285	 0.0852054703254	 772.0	 772.0	 772.0	 0.0	 0.0	 1	 -30.0	 30.0;
	107	 145	 0.00360740342547	 0.0331970964857	 0.514430723323	 745.0	 745.0	 745.0	 0.0	 0.0	 1	 -30.0	 30.0;
	108	 144	 0.00399604540074	 0.0305813219984	 0.379558874626	 666.0	 666.0	 666.0	 0.0	 0.0	 1	 -30.0	 30.0;
	108	 831	 0.00163944069162	 0.0128891051767	 0.155681766354	 677.0	 677.0	 677.0	 0.0	 0.0	 1	 -30.0	 30.0;
	110	 120	 0.00066167313161	 0.00493131083553	 0.0753458402348	 655.0	 655.0	 655.0	 0.0	 0.0	 1	 -30.0	 30.0;
	110	 126	 0.00304753915208	 0.0317680078427	 0.404286033351	 803.0	 803.0	 803.0	 0.0	 0.0	 1	 -30.0	 30.0;
	110	 138	 0.00556721443242	 0.0408020876431	 0.536660063802	 649.0	 649.0	 649.0	 0.0	 0.0	 1	 -30.0	 30.0;
	110	 139	 0.00337644553848	 0.0355982678013	 0.479369480581	 809.0	 809.0	 809.0	 0.0	 0.0	 1	 -30.0	 30.0;
	112	 133	 0.000498465803666	 0.00522605889499	 0.0708487605487	 806.0	 806.0	 806.0	 0.0	 0.0	 1	 -30.0	 30.0;
	112	 61	 0.000488941788666	 0.00477974062132	 0.0642157191862	 773.0	 773.0	 773.0	 0.0	 0.0	 1	 -30.0	 30.0;
	113	 141	 0.00161772318782	 0.0130753341789	 0.155988600327	 688.0	 688.0	 688.0	 0.0	 0.0	 1	 -30.0	 30.0;
	113	 144	 0.00423039319423	 0.0311634704598	 0.397853276477	 651.0	 651.0	 651.0	 0.0	 0.0	 1	 -30.0	 30.0;
	113	 151	 0.00487603953067	 0.0377486825413	 0.528233339417	 671.0	 671.0	 671.0	 0.0	 0.0	 1	 -30.0	 30.0;
	113	 827	 0.00308806953446	 0.0224291788372	 0.283483339423	 645.0	 645.0	 645.0	 0.0	 0.0	 1	 -30.0	 30.0;
	114	 151	 0.0046089294713	 0.038004004964	 0.461186470542	 697.0	 697.0	 697.0	 0.0	 0.0	 1	 -30.0	 30.0;
	114	 151	 0.00458581263036	 0.035770986503	 0.418555074955	 674.0	 674.0	 674.0	 0.0	 0.0	 1	 -30.0	 30.0;
	116	 149	 0.000883235337578	 0.0111677709848	 1.34414568382	 1369.0	 1369.0	 1369.0	 0.0	 0.0	 1	 -30.0	 30.0;
	117	 145	 0.00022335998929	 0.00216234952071	 0.0322979814526	 768.0	 768.0	 768.0	 0.0	 0.0	 1	 -30.0	 30.0;
	117	 145	 0.000238167415531	 0.00231826326825	 0.0307610085719	 771.0	 771.0	 771.0	 0.0	 0.0	 1	 -30.0	 30.0;
	117	 148	 0.00710617731696	 0.0514050203638	 0.638037150089	 644.0	 644.0	 644.0	 0.0	 0.0	 1	 -30.0	 30.0;
	118	 61	 0.00352068652537	 0.0366451952427	 0.506899248446	 803.0	 803.0	 803.0	 0.0	 0.0	 1	 -30.0	 30.0;
	118	 140	 0.00110940314058	 0.012115308409	 0.163442455622	 827.0	 827.0	 827.0	 0.0	 0.0	 1	 -30.0	 30.0;
	118	 142	 0.000209851418114	 0.00213080877282	 0.0260711305087	 791.0	 791.0	 791.0	 0.0	 0.0	 1	 -30.0	 30.0;
	119	 151	 0.00252018925839	 0.0198347948931	 0.25642106493	 677.0	 677.0	 677.0	 0.0	 0.0	 1	 -30.0	 30.0;
	120	 138	 0.00523333629469	 0.0379330542231	 0.4776140188	 644.0	 644.0	 644.0	 0.0	 0.0	 1	 -30.0	 30.0;
	121	 237	 0.00073427070455	 0.00176356117769	 0.0634191892861	 132.0	 132.0	 132.0	 0.0	 0.0	 1	 -30.0	 30.0;
	122	 239	 0.000900875458138	 0.00193855155641	 0.071741571531	 124.0	 124.0	 124.0	 0.0	 0.0	 1	 -30.0	 30.0;
	123	 236	 0.00090372236439	 0.0019775712277	 0.0745700309042	 125.0	 125.0	 125.0	 0.0	 0.0	 1	 -30.0	 30.0;
	124	 366	 0.00394227827058	 0.00910197651868	 0.353687029719	 129.0	 129.0	 129.0	 0.0	 0.0	 1	 -30.0	 30.0;
	126	 139	 0.000721468428299	 0.00685869772902	 0.102035714561	 760.0	 760.0	 760.0	 0.0	 0.0	 1	 -30.0	 30.0;
	126	 139	 0.000732850657194	 0.00692474520847	 0.105652408919	 757.0	 757.0	 757.0	 0.0	 0.0	 1	 -30.0	 30.0;
	126	 142	 0.00109038195973	 0.0102098105318	 0.152121480318	 753.0	 753.0	 753.0	 0.0	 0.0	 1	 -30.0	 30.0;
	126	 146	 0.000533160382475	 0.00505011672695	 0.0769011301569	 758.0	 758.0	 758.0	 0.0	 0.0	 1	 -30.0	 30.0;
	127	 61	 0.000482097479463	 0.00499911644876	 0.073108008986	 801.0	 801.0	 801.0	 0.0	 0.0	 1	 -30.0	 30.0;
	128	 131	 0.000651061495167	 0.00635782614943	 0.0888131731084	 772.0	 772.0	 772.0	 0.0	 0.0	 1	 -30.0	 30.0;
	128	 131	 0.000680498463383	 0.00682406313866	 0.0840410319515	 785.0	 785.0	 785.0	 0.0	 0.0	 1	 -30.0	 30.0;
	129	 231	 0.0190887799974	 0.0417284944603	 0.00854633274438	 125.0	 125.0	 125.0	 0.0	 0.0	 1	 -30.0	 30.0;
	129	 775	 0.0183899826685	 0.0503789676931	 0.0103452819217	 143.0	 143.0	 143.0	 0.0	 0.0	 1	 -30.0	 30.0;
	131	 61	 0.000931722339034	 0.0101790137132	 0.131859650624	 827.0	 827.0	 827.0	 0.0	 0.0	 1	 -30.0	 30.0;
	131	 140	 0.00180625766766	 0.0196081123656	 0.241563580367	 824.0	 824.0	 824.0	 0.0	 0.0	 1	 -30.0	 30.0;
	131	 142	 0.00247110633128	 0.026756174016	 0.341263181913	 822.0	 822.0	 822.0	 0.0	 0.0	 1	 -30.0	 30.0;
	132	 240	 0.0504666460818	 0.138101539529	 0.0285785860489	 143.0	 143.0	 143.0	 0.0	 0.0	 1	 -30.0	 30.0;
	132	 387	 0.0341483374679	 0.0862904260834	 0.0182961792859	 136.0	 136.0	 136.0	 0.0	 0.0	 1	 -30.0	 30.0;
	133	 145	 0.00414311490017	 0.039875664362	 0.610746069196	 765.0	 765.0	 765.0	 0.0	 0.0	 1	 -30.0	 30.0;
	133	 557	 0.000415085657749	 0.00336962804536	 2.45741763419	 690.0	 690.0	 690.0	 0.0	 0.0	 1	 -30.0	 30.0;
	61	 143	 0.000600784482877	 0.00608617728453	 0.0844447730286	 790.0	 790.0	 790.0	 0.0	 0.0	 1	 -30.0	 30.0;
	139	 146	 0.000260147637902	 0.00249511185302	 0.0340257547069	 764.0	 764.0	 764.0	 0.0	 0.0	 1	 -30.0	 30.0;
	141	 151	 0.00610351109272	 0.0474793050813	 0.53150875282	 673.0	 673.0	 673.0	 0.0	 0.0	 1	 -30.0	 30.0;
	141	 827	 0.00174801820714	 0.0147438467118	 0.174145010947	 707.0	 707.0	 707.0	 0.0	 0.0	 1	 -30.0	 30.0;
	148	 150	 0.0047032314465	 0.0354236575242	 0.432089222562	 660.0	 660.0	 660.0	 0.0	 0.0	 1	 -30.0	 30.0;
	152	 305	 0.0848258014452	 0.215762278562	 0.0479330866214	 137.0	 137.0	 137.0	 0.0	 0.0	 1	 -30.0	 30.0;
	152	 324	 0.0921610933196	 0.252731762581	 0.0532168567607	 143.0	 143.0	 143.0	 0.0	 0.0	 1	 -30.0	 30.0;
	152	 328	 0.146600604735	 0.43368307565	 0.0844198663304	 150.0	 150.0	 150.0	 0.0	 0.0	 1	 -30.0	 30.0;
	152	 27	 0.0816180064428	 0.248522128142	 0.0498730454117	 153.0	 153.0	 153.0	 0.0	 0.0	 1	 -30.0	 30.0;
	327	 152	 0.122127040621	 0.387032697255	 0.0705996104013	 78.0	 78.0	 78.0	 1.05524105524	 0.0	 1	 -30.0	 30.0;
	157	 266	 0.007348138619	 0.027084312552	 0.0073041799403	 171.0	 171.0	 171.0	 0.0	 0.0	 1	 -30.0	 30.0;
	157	 328	 0.064302368217	 0.179782844637	 0.0391882451239	 145.0	 145.0	 145.0	 0.0	 0.0	 1	 -30.0	 30.0;
	157	 439	 0.0137641569462	 0.0554713365996	 0.0139707842747	 181.0	 181.0	 181.0	 0.0	 0.0	 1	 -30.0	 30.0;
	157	 27	 0.0335169374746	 0.0925353454416	 0.0194450915731	 144.0	 144.0	 144.0	 0.0	 0.0	 1	 -30.0	 30.0;
	248	 300	 0.00232129511073	 0.0235966139763	 0.00944844518989	 317.0	 317.0	 317.0	 0.0	 0.0	 1	 -30.0	 30.0;
	248	 440	 0.0391035697424	 0.13724645487	 0.0275094154143	 166.0	 166.0	 166.0	 0.0	 0.0	 1	 -30.0	 30.0;
	248	 440	 0.0391109898971	 0.133320047989	 0.0287044096796	 163.0	 163.0	 163.0	 0.0	 0.0	 1	 -30.0	 30.0;
	248	 299	 0.00259699303425	 0.0248707968479	 0.0100089951338	 306.0	 306.0	 306.0	 0.0	 0.0	 1	 -30.0	 30.0;
	159	 293	 0.0384952470938	 0.103150158628	 0.0210051026773	 141.0	 141.0	 141.0	 0.0	 0.0	 1	 -30.0	 30.0;
	159	 450	 0.00504658115446	 0.0484492560744	 0.00734512575149	 306.0	 306.0	 306.0	 0.0	 0.0	 1	 -30.0	 30.0;
	159	 450	 0.00498420889536	 0.0500184619898	 0.00687982177205	 314.0	 314.0	 314.0	 0.0	 0.0	 1	 -30.0	 30.0;
	159	 463	 0.00112832137295	 0.0273333704791	 0.00152318143003	 537.0	 537.0	 537.0	 0.0	 0.0	 1	 -30.0	 30.0;
	159	 463	 0.0014653411747	 0.0288109698318	 0.00194010314457	 473.0	 473.0	 473.0	 0.0	 0.0	 1	 -30.0	 30.0;
	160	 204	 0.037137350647	 0.166024452782	 0.439467819973	 320.0	 320.0	 320.0	 0.0	 0.0	 1	 -30.0	 30.0;
	161	 285	 0.0111953976303	 0.0326866901417	 0.00730378862447	 149.0	 149.0	 149.0	 0.0	 0.0	 1	 -30.0	 30.0;
	161	 310	 0.0282790310737	 0.127183871413	 0.03063514373	 193.0	 193.0	 193.0	 0.0	 0.0	 1	 -30.0	 30.0;
	161	 488	 0.0177460300931	 0.0826486789633	 0.0193459078121	 197.0	 197.0	 197.0	 0.0	 0.0	 1	 -30.0	 30.0;
	162	 214	 0.000695737863913	 0.00577944167618	 0.163396484523	 280.0	 280.0	 280.0	 0.0	 0.0	 1	 -30.0	 30.0;
	162	 156	 0.000519020659232	 0.00438133045006	 0.113079029358	 283.0	 283.0	 283.0	 0.0	 0.0	 1	 -30.0	 30.0;
	162	 517	 0.000297132604429	 0.00235668686017	 0.0609269869972	 273.0	 273.0	 273.0	 0.0	 0.0	 1	 -30.0	 30.0;
	162	 518	 0.000294323009653	 0.00235319098462	 0.0609268620239	 274.0	 274.0	 274.0	 0.0	 0.0	 1	 -30.0	 30.0;
...